__1r1h_A_rec_1r1h_bir_lig_docked.pdb
     RDKit          3D

 29 30  0  0  1  0  0  0  0  0999 V2000
   30.9820    2.2500   -5.7150 C   0  0  1  0  0  0  0  0  0  0  0  0
   30.5550    1.3890   -4.5540 C   0  0  0  0  0  0  0  0  0  0  0  0
   29.9720    1.8650   -3.5930 O   0  0  0  0  0  0  0  0  0  0  0  0
   30.8520    0.0970   -4.5980 N   0  0  0  0  0  0  0  0  0  0  0  0
   30.3620   -0.7520   -3.5240 C   0  0  1  0  0  0  0  0  0  0  0  0
   28.9920   -1.3230   -3.8800 C   0  0  0  0  0  0  0  0  0  0  0  0
   31.3110   -1.8680   -3.2550 C   0  0  0  0  0  0  0  0  0  0  0  0
   30.8960   -2.9150   -2.7520 O   0  0  0  0  0  0  0  0  0  0  0  0
   32.4870   -1.7200   -3.5480 O   0  0  0  0  0  0  0  0  0  0  0  0
   29.9250    2.2410   -6.8300 C   0  0  0  0  0  0  0  0  0  0  0  0
   30.5080    2.7320   -8.3870 P   0  0  2  0  0  0  0  0  0  0  0  0
   31.6280    1.8220   -8.7780 O   0  0  0  0  0  0  0  0  0  0  0  0
   30.7870    4.2070   -8.3650 O   0  0  0  0  0  0  0  0  0  0  0  0
   28.0070    1.9090   -8.8090 C   0  0  0  0  0  0  0  0  0  0  0  0
   29.2690    2.3700   -9.5480 C   0  0  2  0  0  0  0  0  0  0  0  0
   29.6740    1.3510  -10.5070 N   0  0  0  0  0  0  0  0  0  0  0  0
   31.2100    3.6960   -5.2500 C   0  0  0  0  0  0  0  0  0  0  0  0
   32.6660    3.9680   -4.9930 C   0  0  0  0  0  0  0  0  0  0  0  0
   33.6100    3.7280   -5.9870 C   0  0  0  0  0  0  0  0  0  0  0  0
   34.9550    3.9960   -5.7570 C   0  0  0  0  0  0  0  0  0  0  0  0
   35.3770    4.5150   -4.5260 C   0  0  0  0  0  0  0  0  0  0  0  0
   34.4220    4.7490   -3.5310 C   0  0  0  0  0  0  0  0  0  0  0  0
   33.0790    4.4770   -3.7630 C   0  0  0  0  0  0  0  0  0  0  0  0
   36.7930    4.8160   -4.2870 C   0  0  0  0  0  0  0  0  0  0  0  0
   37.2170    6.1400   -4.1060 C   0  0  0  0  0  0  0  0  0  0  0  0
   38.5600    6.4310   -3.8840 C   0  0  0  0  0  0  0  0  0  0  0  0
   39.4980    5.4030   -3.8350 C   0  0  0  0  0  0  0  0  0  0  0  0
   39.0880    4.0820   -4.0130 C   0  0  0  0  0  0  0  0  0  0  0  0
   37.7460    3.7920   -4.2400 C   0  0  0  0  0  0  0  0  0  0  0  0
  1 10  1  6
  1 17  1  0
  1  2  1  0
  2  3  2  0
  2  4  1  0
  4  5  1  0
  5  7  1  0
  5  6  1  6
  7  8  2  0
  7  9  1  0
 10 11  1  0
 11 13  2  0
 11 12  1  0
 11 15  1  0
 15 14  1  1
 15 16  1  0
 17 18  1  0
 18 23  2  0
 18 19  1  0
 19 20  2  0
 20 21  1  0
 21 22  2  0
 21 24  1  0
 22 23  1  0
 24 25  2  0
 24 29  1  0
 25 26  1  0
 26 27  2  0
 27 28  1  0
 28 29  2  0
M  END
>  <MODEL>  (1) 
       1

>  <COMPND>  (1) 
    UNNAMED

>  <AUTHOR>  (1) 
    GENERATED BY OPEN BABEL 2.4.90

>  <MASTER>  (1) 
        0    0    0    0    0    0    0    0   29    0   29    0

$$$$
